dss/import/capas-pablo/Formato-interfaz/completo-linegeometry/Line.dss
New Line.conexion_et_bus_1558 Bus1=buset Bus2=1558 Length=1.0 Geometry=Geometria_S120 Units=m
New Line.conexion_et_bus_1583 Bus1=buset Bus2=1583 Length=1.0 Geometry=Geometria_S120 Units=m
New Line.conexion_et_bus_192 Bus1=buset Bus2=192 Length=1.0 Geometry=Geometria_S120 Units=m
New Line.conexion_et_bus_234 Bus1=buset Bus2=234 Length=1.0 Geometry=Geometria_S120 Units=m
New Line.conexion_et_bus_1557 Bus1=buset Bus2=1557 Length=1.0 Geometry=Geometria_S120 Units=m
New Line.idlinea1_idtramos_1 Bus1=1 Bus2=2 Length=517.363 Geometry=Geometria_S70 Units=m
New Line.idlinea2_idtramos_2 Bus1=2 Bus2=3 Length=307.326 Geometry=Geometria_S70 Units=m
New Line.idlinea3_idtramos_3 Bus1=4 Bus2=5 Length=43.514 Geometry=Geometria_S35 Units=m
New Line.idlinea4_idtramos_4 Bus1=6 Bus2=7 Length=9.729 Geometry=Geometria_S35 Units=m
New Line.idlinea5_idtramos_5 Bus1=8 Bus2=9 Length=64.12 Geometry=Geometria_S35 Units=m
New Line.idlinea6_idtramos_6 Bus1=10 Bus2=11 Length=31.756 Geometry=Geometria_S35 Units=m
New Line.idlinea7_idtramos_7 Bus1=3 Bus2=12 Length=621.297 Geometry=Geometria_S70 Units=m
New Line.idlinea8_idtramos_8 Bus1=13 Bus2=14 Length=47.359 Geometry=Geometria_S50 Units=m
New Line.idlinea16_idtramos_9 Bus1=16 Bus2=15 Length=244.205 Geometry=Geometria_S70 Units=m
New Line.idlinea17_idtramos_10 Bus1=16 Bus2=17 Length=20.714 Geometry=Geometria_S70 Units=m
New Line.idlinea18_idtramos_11 Bus1=18 Bus2=19 Length=28.91 Geometry=Geometria_S70 Units=m
New Line.idlinea28_idtramos_12 Bus1=20 Bus2=21 Length=41.74 Geometry=Geometria_S35 Units=m
New Line.idlinea35_idtramos_13 Bus1=22 Bus2=23 Length=25.325 Geometry=Geometria_S35 Units=m
New Line.idlinea39_idtramos_14 Bus1=26 Bus2=24 Length=14.565 Geometry=Geometria_S50 Units=m
New Line.idlinea39_idtramos_15 Bus1=24 Bus2=25 Length=14.521 Geometry=Geometria_S50 Units=m
New Line.idlinea41_idtramos_16 Bus1=26 Bus2=27 Length=484.806 Geometry=Geometria_S50 Units=m
New Line.idlinea42_idtramos_17 Bus1=28 Bus2=29 Length=21.831 Geometry=Geometria_S35 Units=m
New Line.idlinea54_idtramos_18 Bus1=30 Bus2=31 Length=17.451 Geometry=Geometria_S70 Units=m
New Line.idlinea55_idtramos_19 Bus1=47 Bus2=32 Length=113.01 Geometry=Geometria_S50 Units=m
New Line.idlinea38_idtramos_20 Bus1=33 Bus2=34 Length=1007.5 Geometry=Geometria_S50 Units=m
New Line.idlinea38_idtramos_21 Bus1=34 Bus2=35 Length=36.421 Geometry=Geometria_S50 Units=m
New Line.idlinea38_idtramos_22 Bus1=35 Bus2=36 Length=74.044 Geometry=Geometria_S50 Units=m
New Line.idlinea38_idtramos_23 Bus1=36 Bus2=37 Length=32.108 Geometry=Geometria_S50 Units=m
New Line.idlinea38_idtramos_24 Bus1=37 Bus2=38 Length=13.867 Geometry=Geometria_S50 Units=m
New Line.idlinea38_idtramos_25 Bus1=38 Bus2=39 Length=12.112 Geometry=Geometria_S50 Units=m
New Line.idlinea38_idtramos_26 Bus1=39 Bus2=40 Length=152.085 Geometry=Geometria_S50 Units=m
New Line.idlinea40_idtramos_27 Bus1=41 Bus2=42 Length=98.152 Geometry=Geometria_S70 Units=m
New Line.idlinea56_idtramos_28 Bus1=43 Bus2=44 Length=394.734 Geometry=Geometria_S50 Units=m
New Line.idlinea61_idtramos_29 Bus1=45 Bus2=46 Length=517.789 Geometry=Geometria_S35 Units=m
New Line.idlinea62_idtramos_30 Bus1=47 Bus2=48 Length=60.185 Geometry=Geometria_S50 Units=m
New Line.idlinea9_idtramos_31 Bus1=49 Bus2=50 Length=340.328 Geometry=Geometria_S50 Units=m
New Line.idlinea10_idtramos_32 Bus1=51 Bus2=52 Length=55.442 Geometry=Geometria_S35 Units=m
New Line.idlinea10_idtramos_33 Bus1=52 Bus2=53 Length=86.575 Geometry=Geometria_S35 Units=m
New Line.idlinea10_idtramos_34 Bus1=53 Bus2=54 Length=366.881 Geometry=Geometria_S35 Units=m
New Line.idlinea10_idtramos_35 Bus1=54 Bus2=55 Length=240.07 Geometry=Geometria_S35 Units=m
New Line.idlinea10_idtramos_36 Bus1=55 Bus2=56 Length=47.772 Geometry=Geometria_S35 Units=m
New Line.idlinea10_idtramos_37 Bus1=56 Bus2=57 Length=43.531 Geometry=Geometria_S35 Units=m
New Line.idlinea10_idtramos_38 Bus1=57 Bus2=58 Length=26.95 Geometry=Geometria_S35 Units=m
New Line.idlinea11_idtramos_39 Bus1=59 Bus2=60 Length=528.272 Geometry=Geometria_S35 Units=m
New Line.idlinea12_idtramos_40 Bus1=61 Bus2=62 Length=53.403 Geometry=Geometria_S70 Units=m
New Line.idlinea13_idtramos_41 Bus1=63 Bus2=64 Length=134.016 Geometry=Geometria_S70 Units=m
New Line.idlinea14_idtramos_42 Bus1=65 Bus2=66 Length=650.112 Geometry=Geometria_S35 Units=m
New Line.idlinea15_idtramos_43 Bus1=67 Bus2=68 Length=51.137 Geometry=Geometria_S35 Units=m
New Line.idlinea19_idtramos_44 Bus1=69 Bus2=70 Length=7.965 Geometry=Geometria_S35 Units=m
New Line.idlinea43_idtramos_45 Bus1=71 Bus2=72 Length=111.277 Geometry=Geometria_S35 Units=m
New Line.idlinea99_idtramos_46 Bus1=88 Bus2=73 Length=48.256 Geometry=Geometria_S35 Units=m
New Line.idlinea20_idtramos_47 Bus1=74 Bus2=75 Length=296.972 Geometry=Geometria_S70 Units=m
New Line.idlinea65_idtramos_48 Bus1=76 Bus2=77 Length=359.608 Geometry=Geometria_S70 Units=m
New Line.idlinea65_idtramos_49 Bus1=77 Bus2=79 Length=87.421 Geometry=Geometria_S70 Units=m
New Line.idlinea66_idtramos_50 Bus1=78 Bus2=79 Length=272.813 Geometry=Geometria_S70 Units=m
New Line.idlinea96_idtramos_51 Bus1=80 Bus2=81 Length=6.43 Geometry=Geometria_S70 Units=m
New Line.idlinea22_idtramos_52 Bus1=82 Bus2=83 Length=6.496 Geometry=Geometria_S35 Units=m
New Line.idlinea97_idtramos_53 Bus1=84 Bus2=85 Length=33.456 Geometry=Geometria_S35 Units=m
New Line.idlinea98_idtramos_54 Bus1=86 Bus2=87 Length=31.231 Geometry=Geometria_S70 Units=m
New Line.idlinea100_idtramos_55 Bus1=88 Bus2=89 Length=42.003 Geometry=Geometria_S35 Units=m
New Line.idlinea101_idtramos_56 Bus1=90 Bus2=91 Length=14.317 Geometry=Geometria_S35 Units=m
New Line.idlinea102_idtramos_57 Bus1=92 Bus2=93 Length=301.571 Geometry=Geometria_S35 Units=m
New Line.idlinea103_idtramos_58 Bus1=94 Bus2=95 Length=236.552 Geometry=Geometria_S35 Units=m
New Line.idlinea104_idtramos_59 Bus1=95 Bus2=96 Length=528.526 Geometry=Geometria_S35 Units=m
New Line.idlinea105_idtramos_60 Bus1=97 Bus2=98 Length=37.297 Geometry=Geometria_S35 Units=m
New Line.idlinea106_idtramos_61 Bus1=101 Bus2=99 Length=29.74 Geometry=Geometria_S35 Units=m
New Line.idlinea107_idtramos_62 Bus1=100 Bus2=101 Length=70.505 Geometry=Geometria_S50 Units=m
New Line.idlinea108_idtramos_63 Bus1=102 Bus2=103 Length=512.092 Geometry=Geometria_S70 Units=m
New Line.idlinea23_idtramos_64 Bus1=104 Bus2=105 Length=5.212 Geometry=Geometria_S35 Units=m
New Line.idlinea44_idtramos_65 Bus1=106 Bus2=107 Length=24.318 Geometry=Geometria_S35 Units=m
New Line.idlinea45_idtramos_66 Bus1=108 Bus2=109 Length=51.729 Geometry=Geometria_S50 Units=m
New Line.idlinea109_idtramos_67 Bus1=110 Bus2=111 Length=40.945 Geometry=Geometria_S70 Units=m
New Line.idlinea110_idtramos_68 Bus1=112 Bus2=113 Length=24.85 Geometry=Geometria_S35 Units=m
New Line.idlinea46_idtramos_69 Bus1=108 Bus2=114 Length=48.055 Geometry=Geometria_S70 Units=m
New Line.idlinea46_idtramos_70 Bus1=114 Bus2=115 Length=21.476 Geometry=Geometria_S70 Units=m
New Line.idlinea46_idtramos_71 Bus1=115 Bus2=116 Length=45.682 Geometry=Geometria_S70 Units=m
New Line.idlinea46_idtramos_72 Bus1=116 Bus2=117 Length=86.441 Geometry=Geometria_S70 Units=m
New Line.idlinea46_idtramos_73 Bus1=117 Bus2=118 Length=173.174 Geometry=Geometria_S70 Units=m
New Line.idlinea46_idtramos_74 Bus1=118 Bus2=119 Length=304.813 Geometry=Geometria_S70 Units=m
New Line.idlinea46_idtramos_75 Bus1=119 Bus2=120 Length=705.193 Geometry=Geometria_S70 Units=m
New Line.idlinea47_idtramos_76 Bus1=121 Bus2=122 Length=55.532 Geometry=Geometria_S35 Units=m
New Line.idlinea47_idtramos_77 Bus1=122 Bus2=123 Length=261.857 Geometry=Geometria_S35 Units=m
New Line.idlinea48_idtramos_78 Bus1=125 Bus2=124 Length=54.196 Geometry=Geometria_S50 Units=m
New Line.idlinea49_idtramos_79 Bus1=125 Bus2=126 Length=29.2 Geometry=Geometria_S35 Units=m
New Line.idlinea50_idtramos_80 Bus1=29 Bus2=127 Length=21.996 Geometry=Geometria_S50 Units=m
New Line.idlinea51_idtramos_81 Bus1=128 Bus2=129 Length=328.627 Geometry=Geometria_S35 Units=m
New Line.idlinea52_idtramos_82 Bus1=131 Bus2=130 Length=362.378 Geometry=Geometria_S50 Units=m
New Line.idlinea53_idtramos_83 Bus1=131 Bus2=132 Length=57.043 Geometry=Geometria_S50 Units=m
New Line.idlinea111_idtramos_84 Bus1=133 Bus2=134 Length=59.324 Geometry=Geometria_S35 Units=m
New Line.idlinea112_idtramos_85 Bus1=135 Bus2=136 Length=48.968 Geometry=Geometria_S35 Units=m
New Line.idlinea114_idtramos_86 Bus1=137 Bus2=138 Length=26.024 Geometry=Geometria_S35 Units=m
New Line.idlinea122_idtramos_87 Bus1=139 Bus2=140 Length=31.224 Geometry=Geometria_S35 Units=m
New Line.idlinea57_idtramos_88 Bus1=144 Bus2=141 Length=870.915 Geometry=Geometria_S25 Units=m
New Line.idlinea24_idtramos_89 Bus1=142 Bus2=143 Length=186.25 Geometry=Geometria_S50 Units=m
New Line.idlinea58_idtramos_90 Bus1=144 Bus2=145 Length=658.953 Geometry=Geometria_S50 Units=m
New Line.idlinea59_idtramos_91 Bus1=47 Bus2=146 Length=11.123 Geometry=Geometria_S50 Units=m
New Line.idlinea59_idtramos_92 Bus1=146 Bus2=147 Length=30.397 Geometry=Geometria_S50 Units=m
New Line.idlinea59_idtramos_93 Bus1=147 Bus2=148 Length=726.186 Geometry=Geometria_S50 Units=m
New Line.idlinea124_idtramos_94 Bus1=149 Bus2=150 Length=152.651 Geometry=Geometria_S50 Units=m
New Line.idlinea125_idtramos_95 Bus1=151 Bus2=152 Length=9.286 Geometry=Geometria_S70 Units=m
New Line.idlinea125_idtramos_96 Bus1=152 Bus2=153 Length=552.06 Geometry=Geometria_S70 Units=m
New Line.idlinea25_idtramos_97 Bus1=142 Bus2=154 Length=17.192 Geometry=Geometria_S70 Units=m
New Line.idlinea25_idtramos_98 Bus1=154 Bus2=156 Length=224.597 Geometry=Geometria_S70 Units=m
New Line.idlinea126_idtramos_99 Bus1=164 Bus2=155 Length=52.451 Geometry=Geometria_S50 Units=m
New Line.idlinea26_idtramos_100 Bus1=156 Bus2=176 Length=1032.359 Geometry=Geometria_S95 Units=m
New Line.idlinea60_idtramos_101 Bus1=43 Bus2=157 Length=58.39 Geometry=Geometria_S50 Units=m
New Line.idlinea113_idtramos_102 Bus1=158 Bus2=159 Length=219.905 Geometry=Geometria_S35 Units=m
New Line.idlinea113_idtramos_103 Bus1=159 Bus2=160 Length=86.937 Geometry=Geometria_S35 Units=m
New Line.idlinea127_idtramos_104 Bus1=161 Bus2=162 Length=30.456 Geometry=Geometria_S25 Units=m
New Line.idlinea131_idtramos_105 Bus1=163 Bus2=164 Length=28.505 Geometry=Geometria_S50 Units=m
New Line.idlinea132_idtramos_106 Bus1=165 Bus2=166 Length=34.36 Geometry=Geometria_S70 Units=m
New Line.idlinea133_idtramos_107 Bus1=167 Bus2=168 Length=99.141 Geometry=Geometria_S70 Units=m
New Line.idlinea134_idtramos_108 Bus1=169 Bus2=170 Length=746.199 Geometry=Geometria_S50 Units=m
New Line.idlinea135_idtramos_109 Bus1=170 Bus2=171 Length=583.211 Geometry=Geometria_S50 Units=m
New Line.idlinea135_idtramos_110 Bus1=171 Bus2=92 Length=10.415 Geometry=Geometria_S50 Units=m
New Line.idlinea136_idtramos_111 Bus1=174 Bus2=172 Length=36.42 Geometry=Geometria_S35 Units=m
New Line.idlinea137_idtramos_112 Bus1=173 Bus2=174 Length=320.936 Geometry=Geometria_S50 Units=m
New Line.idlinea138_idtramos_113 Bus1=97 Bus2=175 Length=35.069 Geometry=Geometria_S35 Units=m
New Line.idlinea27_idtramos_114 Bus1=176 Bus2=17 Length=26.917 Geometry=Geometria_S70 Units=m
New Line.idlinea139_idtramos_115 Bus1=177 Bus2=178 Length=31.668 Geometry=Geometria_S35 Units=m
New Line.idlinea140_idtramos_116 Bus1=179 Bus2=180 Length=31.84 Geometry=Geometria_S35 Units=m
New Line.idlinea141_idtramos_117 Bus1=181 Bus2=182 Length=16.178 Geometry=Geometria_S35 Units=m
New Line.idlinea142_idtramos_118 Bus1=183 Bus2=184 Length=1.069 Geometry=Geometria_S95 Units=m
New Line.idlinea142_idtramos_119 Bus1=184 Bus2=185 Length=37.235 Geometry=Geometria_S95 Units=m
New Line.idlinea143_idtramos_120 Bus1=94 Bus2=187 Length=17.925 Geometry=Geometria_S70 Units=m
New Line.idlinea144_idtramos_121 Bus1=186 Bus2=187 Length=30.922 Geometry=Geometria_S70 Units=m
New Line.idlinea145_idtramos_122 Bus1=188 Bus2=189 Length=40.575 Geometry=Geometria_S35 Units=m
New Line.idlinea146_idtramos_123 Bus1=188 Bus2=190 Length=12.926 Geometry=Geometria_S35 Units=m
New Line.idlinea146_idtramos_124 Bus1=190 Bus2=191 Length=41.476 Geometry=Geometria_S35 Units=m
New Line.idlinea147_idtramos_125 Bus1=192 Bus2=193 Length=10.615 Geometry=Geometria_S95 Units=m
New Line.idlinea148_idtramos_126 Bus1=194 Bus2=195 Length=38.666 Geometry=Geometria_S35 Units=m
New Line.idlinea149_idtramos_127 Bus1=196 Bus2=197 Length=28.564 Geometry=Geometria_S35 Units=m
New Line.idlinea150_idtramos_128 Bus1=198 Bus2=199 Length=67.164 Geometry=Geometria_S35 Units=m
New Line.idlinea151_idtramos_129 Bus1=201 Bus2=200 Length=8.713 Geometry=Geometria_S35 Units=m
New Line.idlinea152_idtramos_130 Bus1=201 Bus2=202 Length=11.284 Geometry=Geometria_S35 Units=m
New Line.idlinea153_idtramos_131 Bus1=203 Bus2=204 Length=15.281 Geometry=Geometria_S35 Units=m
New Line.idlinea154_idtramos_132 Bus1=205 Bus2=206 Length=5.281 Geometry=Geometria_S120 Units=m
New Line.idlinea155_idtramos_133 Bus1=188 Bus2=207 Length=185.044 Geometry=Geometria_S120 Units=m
New Line.idlinea158_idtramos_134 Bus1=208 Bus2=209 Length=112.788 Geometry=Geometria_S70 Units=m
New Line.idlinea159_idtramos_135 Bus1=210 Bus2=211 Length=35.059 Geometry=Geometria_S70 Units=m
New Line.idlinea173_idtramos_136 Bus1=212 Bus2=213 Length=79.298 Geometry=Geometria_S35 Units=m
New Line.idlinea174_idtramos_137 Bus1=214 Bus2=216 Length=60.317 Geometry=Geometria_S35 Units=m
New Line.idlinea175_idtramos_138 Bus1=215 Bus2=216 Length=35.543 Geometry=Geometria_S35 Units=m
New Line.idlinea184_idtramos_139 Bus1=217 Bus2=218 Length=16.275 Geometry=Geometria_S35 Units=m
New Line.idlinea185_idtramos_140 Bus1=219 Bus2=220 Length=196.542 Geometry=Geometria_S50 Units=m
New Line.idlinea186_idtramos_141 Bus1=221 Bus2=222 Length=28.644 Geometry=Geometria_S35 Units=m
New Line.idlinea187_idtramos_142 Bus1=223 Bus2=224 Length=17.695 Geometry=Geometria_S35 Units=m
New Line.idlinea188_idtramos_143 Bus1=225 Bus2=226 Length=4.909 Geometry=Geometria_S35 Units=m
New Line.idlinea189_idtramos_144 Bus1=227 Bus2=228 Length=15.029 Geometry=Geometria_S35 Units=m
New Line.idlinea190_idtramos_145 Bus1=229 Bus2=230 Length=2.431 Geometry=Geometria_S35 Units=m
New Line.idlinea190_idtramos_146 Bus1=230 Bus2=231 Length=12.015 Geometry=Geometria_S35 Units=m
New Line.idlinea191_idtramos_147 Bus1=232 Bus2=233 Length=18.212 Geometry=Geometria_S35 Units=m
New Line.idlinea195_idtramos_148 Bus1=234 Bus2=235 Length=10.434 Geometry=Geometria_S95 Units=m
New Line.idlinea196_idtramos_149 Bus1=236 Bus2=237 Length=36.422 Geometry=Geometria_S70 Units=m
New Line.idlinea196_idtramos_150 Bus1=237 Bus2=238 Length=15.693 Geometry=Geometria_S70 Units=m
New Line.idlinea197_idtramos_151 Bus1=239 Bus2=240 Length=513.851 Geometry=Geometria_S95 Units=m
New Line.idlinea197_idtramos_152 Bus1=240 Bus2=241 Length=21.387 Geometry=Geometria_S95 Units=m
New Line.idlinea197_idtramos_153 Bus1=241 Bus2=242 Length=0.472 Geometry=Geometria_S95 Units=m
New Line.idlinea198_idtramos_154 Bus1=242 Bus2=243 Length=6.68 Geometry=Geometria_S35 Units=m
New Line.idlinea199_idtramos_155 Bus1=244 Bus2=245 Length=5.956 Geometry=Geometria_S35 Units=m
New Line.idlinea200_idtramos_156 Bus1=246 Bus2=247 Length=13.143 Geometry=Geometria_S35 Units=m
New Line.idlinea201_idtramos_157 Bus1=248 Bus2=249 Length=35.278 Geometry=Geometria_S35 Units=m
New Line.idlinea202_idtramos_158 Bus1=250 Bus2=251 Length=5.496 Geometry=Geometria_S35 Units=m
New Line.idlinea29_idtramos_159 Bus1=252 Bus2=253 Length=610.019 Geometry=Geometria_S70 Units=m
New Line.idlinea30_idtramos_160 Bus1=254 Bus2=255 Length=12.589 Geometry=Geometria_S50 Units=m
New Line.idlinea31_idtramos_161 Bus1=13 Bus2=256 Length=12.715 Geometry=Geometria_S70 Units=m
New Line.idlinea115_idtramos_162 Bus1=158 Bus2=257 Length=34.448 Geometry=Geometria_S35 Units=m
New Line.idlinea160_idtramos_163 Bus1=258 Bus2=259 Length=222.605 Geometry=Geometria_S35 Units=m
New Line.idlinea160_idtramos_164 Bus1=259 Bus2=260 Length=16.407 Geometry=Geometria_S35 Units=m
New Line.idlinea203_idtramos_165 Bus1=202 Bus2=261 Length=173.952 Geometry=Geometria_S95 Units=m
New Line.idlinea203_idtramos_166 Bus1=261 Bus2=262 Length=44.068 Geometry=Geometria_S95 Units=m
New Line.idlinea116_idtramos_167 Bus1=110 Bus2=263 Length=35.915 Geometry=Geometria_S35 Units=m
New Line.idlinea117_idtramos_168 Bus1=264 Bus2=265 Length=31.854 Geometry=Geometria_S35 Units=m
New Line.idlinea33_idtramos_169 Bus1=63 Bus2=302 Length=24.266 Geometry=Geometria_S95 Units=m
New Line.idlinea118_idtramos_170 Bus1=266 Bus2=267 Length=13.233 Geometry=Geometria_S35 Units=m
New Line.idlinea162_idtramos_171 Bus1=268 Bus2=269 Length=362.756 Geometry=Geometria_S35 Units=m
New Line.idlinea163_idtramos_172 Bus1=270 Bus2=271 Length=22.841 Geometry=Geometria_S35 Units=m
New Line.idlinea164_idtramos_173 Bus1=272 Bus2=273 Length=22.366 Geometry=Geometria_S35 Units=m
New Line.idlinea63_idtramos_174 Bus1=274 Bus2=275 Length=25.915 Geometry=Geometria_S35 Units=m
New Line.idlinea119_idtramos_175 Bus1=276 Bus2=277 Length=535.72 Geometry=Geometria_S70 Units=m
New Line.idlinea64_idtramos_176 Bus1=274 Bus2=278 Length=44.585 Geometry=Geometria_S25 Units=m
New Line.idlinea64_idtramos_177 Bus1=278 Bus2=279 Length=22.112 Geometry=Geometria_S25 Units=m
New Line.idlinea64_idtramos_178 Bus1=279 Bus2=280 Length=50.349 Geometry=Geometria_S25 Units=m
New Line.idlinea64_idtramos_179 Bus1=280 Bus2=281 Length=37.982 Geometry=Geometria_S25 Units=m
New Line.idlinea64_idtramos_180 Bus1=281 Bus2=282 Length=21.405 Geometry=Geometria_S25 Units=m
New Line.idlinea64_idtramos_181 Bus1=282 Bus2=283 Length=101.508 Geometry=Geometria_S25 Units=m
New Line.idlinea64_idtramos_182 Bus1=283 Bus2=284 Length=173.784 Geometry=Geometria_S25 Units=m
New Line.idlinea64_idtramos_183 Bus1=284 Bus2=285 Length=13.176 Geometry=Geometria_S25 Units=m
New Line.idlinea64_idtramos_184 Bus1=285 Bus2=286 Length=604.206 Geometry=Geometria_S25 Units=m
New Line.idlinea64_idtramos_185 Bus1=286 Bus2=287 Length=7.503 Geometry=Geometria_S25 Units=m
New Line.idlinea34_idtramos_186 Bus1=64 Bus2=288 Length=39.727 Geometry=Geometria_S35 Units=m
New Line.idlinea36_idtramos_187 Bus1=289 Bus2=290 Length=8.613 Geometry=Geometria_S35 Units=m
New Line.idlinea37_idtramos_188 Bus1=186 Bus2=291 Length=101.887 Geometry=Geometria_S70 Units=m
New Line.idlinea67_idtramos_189 Bus1=292 Bus2=293 Length=15.952 Geometry=Geometria_S50 Units=m
New Line.idlinea67_idtramos_190 Bus1=293 Bus2=78 Length=698.566 Geometry=Geometria_S50 Units=m
New Line.idlinea68_idtramos_191 Bus1=294 Bus2=295 Length=14.546 Geometry=Geometria_S70 Units=m
New Line.idlinea69_idtramos_192 Bus1=296 Bus2=297 Length=28.83 Geometry=Geometria_S35 Units=m
New Line.idlinea70_idtramos_193 Bus1=298 Bus2=299 Length=124.425 Geometry=Geometria_S50 Units=m
New Line.idlinea71_idtramos_194 Bus1=300 Bus2=301 Length=21.779 Geometry=Geometria_S50 Units=m
New Line.idlinea72_idtramos_195 Bus1=302 Bus2=303 Length=58.383 Geometry=Geometria_S70 Units=m
...